4
Lattice="3.61 0.0 0.0 0.0 3.61 0.0 0.0 0.0 3.61" Properties=species:S:1:pos:R:3 CE=-2.9500000000000024 EE=0.0 pbc="T T T"
Ag       0.00000000       0.00000000       0.00000000 
Ag       1.80500000       1.80500000       0.00000000 
Ag       1.80500000       0.00000000       1.80500000 
Ag       0.00000000       1.80500000       1.80500000 
